/*--------------------------------*- C++ -*----------------------------------*\
| =========                 |                                                 |
| \\      /  F ield         | OpenFOAM: The Open Source CFD Toolbox           |
|  \\    /   O peration     | Version:  v1612+                                |
|   \\  /    A nd           | Web:      www.OpenFOAM.org                      |
|    \\/     M anipulation  |                                                 |
\*---------------------------------------------------------------------------*/
/* Butterfly 0.0.3       https://github.com/ladybug-analysis-tools/butterfly *\
\*---------------------------------------------------------------------------*/
FoamFile
{
	version		4.0;
	format		ascii;
	class		volVectorField;
	location	"0";
	object		U;
}

dimensions		[0 1 -1 0 0 0 0];

#include		"initialConditions";

internalField		uniform $flowVelocity;

boundaryField
{

    leftSide
    {

        type		empty;

    }

    rightSide
    {

        type		empty;

    }

    outlet
    {

        type		inletOutlet;

        inletValue		uniform (0 0 0);

        value		$internalField;

    }

    top
    {

        type		slip;

    }

    ground
    {

        type		fixedValue;

        value		uniform (0 0 0);

    }

    buildings
    {

        type		fixedValue;

        value		uniform (0 0 0);

    }

    inlet
    {

        type		atmBoundaryLayerInletVelocity;

        #include		"ABLConditions";

    }

}