/*--------------------------------*- C++ -*----------------------------------*\
| =========                 |                                                 |
| \\      /  F ield         | OpenFOAM: The Open Source CFD Toolbox           |
|  \\    /   O peration     | Version:  v1612+                                |
|   \\  /    A nd           | Web:      www.OpenFOAM.com                      |
|    \\/     M anipulation  |                                                 |
\*---------------------------------------------------------------------------*/
FoamFile
{
    version     2.0;
    format      ascii;
    class       polyBoundaryMesh;
    location    "1/polyMesh";
    object      boundary;
}
// * * * * * * * * * * * * * * * * * * * * * * * * * * * * * * * * * * * * * //

3
(
    room
    {
        type            wall;
        inGroups        1(wall);
        nFaces          288;
        startFace       1520;
    }
    roof
    {
        type            wall;
        inGroups        1(wall);
        nFaces          64;
        startFace       1808;
    }
    floor
    {
        type            wall;
        inGroups        1(wall);
        nFaces          64;
        startFace       1872;
    }
)

// ************************************************************************* //
