/*--------------------------------*- C++ -*----------------------------------*\
| =========                 |                                                 |
| \\      /  F ield         | OpenFOAM: The Open Source CFD Toolbox           |
|  \\    /   O peration     | Version:  v3.0+                                 |
|   \\  /    A nd           | Web:      www.OpenFOAM.org                      |
|    \\/     M anipulation  |                                                 |
\*---------------------------------------------------------------------------*/
/*Generated by Butterfly 0.0.1 https://github.com/mostaphaRoudsari/Butterfly *\
\*---------------------------------------------------------------------------*/
FoamFile
{
	version		3.0;
	format		ascii;
	class		volScalarField;
	location	"0";
	object		k;
}

dimensions		[0 2 -2 0 0 0 0];

#include		"initialConditions";

internalField		uniform $turbulentKE;

boundaryField
{

    rightSide
    {

        type		slip;

    }

    outlet
    {

        type		inletOutlet;

        inletValue		uniform $turbulentKE;

        value		$internalField;

    }

    top
    {

        type		slip;

    }

    ground
    {

        type		zeroGradient;

    }

    buildings
    {

        type		kqRWallFunction;

        value		$internalField;

    }

    inlet
    {

        type		atmBoundaryLayerInletK;

        #include		"ABLConditions";

    }

    lefttSide
    {

        type		slip;

    }

}