/*--------------------------------*- C++ -*----------------------------------*\
| =========                 |                                                 |
| \\      /  F ield         | OpenFOAM: The Open Source CFD Toolbox           |
|  \\    /   O peration     | Version:  v1606+                                |
|   \\  /    A nd           | Web:      www.OpenFOAM.com                      |
|    \\/     M anipulation  |                                                 |
\*---------------------------------------------------------------------------*/
FoamFile
{
    version     2.0;
    format      ascii;
    class       polyBoundaryMesh;
    location    "constant/polyMesh";
    object      boundary;
}
// * * * * * * * * * * * * * * * * * * * * * * * * * * * * * * * * * * * * * //

7
(
    inlet
    {
        type            patch;
        nFaces          27;
        startFace       362259;
    }
    outlet
    {
        type            patch;
        nFaces          27;
        startFace       362286;
    }
    rightSide
    {
        type            patch;
        nFaces          72;
        startFace       362313;
    }
    lefttSide
    {
        type            patch;
        nFaces          72;
        startFace       362385;
    }
    top
    {
        type            patch;
        nFaces          90;
        startFace       362457;
    }
    ground
    {
        type            wall;
        inGroups        1(wall);
        nFaces          6546;
        startFace       362547;
    }
    buildings
    {
        type            wall;
        inGroups        1(wall);
        nFaces          2784;
        startFace       369093;
    }
)

// ************************************************************************* //
