/*--------------------------------*- C++ -*----------------------------------*\
| =========                 |                                                 |
| \\      /  F ield         | OpenFOAM: The Open Source CFD Toolbox           |
|  \\    /   O peration     | Version:  v3.0+                                 |
|   \\  /    A nd           | Web:      www.OpenFOAM.org                      |
|    \\/     M anipulation  |                                                 |
\*---------------------------------------------------------------------------*/
/*Generated by Butterfly 0.0.1 https://github.com/mostaphaRoudsari/Butterfly *\
\*---------------------------------------------------------------------------*/
FoamFile
{
	version		3.0;
	format		ascii;
	class		dictionary;
	location	"system";
	object		controlDict;
}

#include		"probes";

application		simpleFoam;

startFrom		latestTime;

startTime		0;

stopAt		endTime;

endTime		2000;

deltaT		1;

writeControl		timeStep;

writeInterval		100;

purgeWrite		0;

writeFormat		ascii;

writePrecision		6;

writeCompression		true;

timeFormat		general;

timePrecision		6;

runTimeModifiable		true;