/*--------------------------------*- C++ -*----------------------------------*\
| =========                 |                                                 |
| \\      /  F ield         | OpenFOAM: The Open Source CFD Toolbox           |
|  \\    /   O peration     | Version:  2.2.0                                 |
|   \\  /    A nd           | Web:      www.OpenFOAM.org                      |
|    \\/     M anipulation  |                                                 |
\*---------------------------------------------------------------------------*/
FoamFile
{
    version     2.0;
    format      ascii;
    class       dictionary;
    object      fvSchemes;
}
// * * * * * * * * * * * * * * * * * * * * * * * * * * * * * * * * * * * * * //

ddtSchemes
{
    default             steadyState;
}

gradSchemes
{
    default 		cellMDLimited leastSquares 0.5;
    grad(U)		cellMDLimited leastSquares 0.5;
}

divSchemes	

{
   default none;
    div(phi,U)          bounded Gauss linearUpwind grad(U); 
    div(phi,epsilon)    bounded Gauss linearUpwind default;
    div(phi,k)          bounded Gauss linearUpwind default;
    div((nuEff*dev(T(grad(U))))) Gauss linear;
}

laplacianSchemes
{
    default             Gauss linear limited 0.777;
}

interpolationSchemes
{
    default             linear;
}

snGradSchemes
{
    default             limited 0.777;
}

fluxRequired
{
    default             no;
    p			;
}


// ************************************************************************* //
