/*--------------------------------*- C++ -*----------------------------------*\
| =========                 |                                                 |
| \\      /  F ield         | OpenFOAM: The Open Source CFD Toolbox           |
|  \\    /   O peration     | Version:  v1612+                                |
|   \\  /    A nd           | Web:      www.OpenFOAM.org                      |
|    \\/     M anipulation  |                                                 |
\*---------------------------------------------------------------------------*/
/* Butterfly 0.0.3       https://github.com/ladybug-analysis-tools/butterfly *\
\*---------------------------------------------------------------------------*/
FoamFile
{
	version		4.0;
	format		ascii;
	class		dictionary;
	location	"system";
	object		blockMeshDict;
}

convertToMeters 1.0000;

vertices
(
	(-0.49998980569339235 -0.50000428173607059 1.000003784358181)
	(0.50001019430660765 -0.50000428173607059 1.000003784358181)
	(0.50001019430660765 0.49999571826392936 1.000003784358181)
	(-0.49998980569339235 0.49999571826392936 1.000003784358181)
	(-0.49998980569339235 -0.50000428173607059 5.0000037843581815)
	(0.50001019430660765 -0.50000428173607059 5.0000037843581815)
	(0.50001019430660765 0.49999571826392936 5.0000037843581815)
	(-0.49998980569339235 0.49999571826392936 5.0000037843581815)
);

blocks
(
hex (0 1 2 3 4 5 6 7) (20 20 40) 
simpleGrading (
	1.0
	1.0
	1.0
	)
);

edges
(
);

boundary
(   boundingbox
   {
       type wall;
       faces
       (       
	(0 3 2 1)
	(4 5 6 7)
	(1 2 6 5)
	(3 0 4 7)
	(0 1 5 4)
	(2 3 7 6)
       );
   }
);

mergePatchPair
(
);
