/*--------------------------------*- C++ -*----------------------------------*\
| =========                 |                                                 |
| \\      /  F ield         | OpenFOAM: The Open Source CFD Toolbox           |
|  \\    /   O peration     | Version:  v1612+                                |
|   \\  /    A nd           | Web:      www.OpenFOAM.org                      |
|    \\/     M anipulation  |                                                 |
\*---------------------------------------------------------------------------*/
/* Butterfly 0.0.3       https://github.com/ladybug-analysis-tools/butterfly *\
\*---------------------------------------------------------------------------*/
FoamFile
{
	version		4.0;
	format		ascii;
	class		dictionary;
	location	"system";
	object		snappyHexMeshDict;
}

castellatedMesh		true;

snap		true;

addLayers		true;

geometry
{

    pipe.stl
    {

        type		triSurfaceMesh;

        name		pipe;

        regions
        {

            outlet
            {

                name		outlet;

            }

            main_pipe
            {

                name		main_pipe;

            }

            inlet
            {

                name		inlet;

            }

        }

    }

}

castellatedMeshControls
{

    maxLocalCells		1500000;

    maxGlobalCells		2000000;

    minRefinementCells		10 nCellsBetweenLevels 6;

    maxLoadUnbalance		0.10;

    nCellsBetweenLevels		3;

    features		( );

    refinementSurfaces
    {

        cylinder
        {

            level		(1 1);

        }

        pipe
        {

            level		(0 0);

            regions
            {

                main_pipe
                {

                    level		(1 1);

                }

            }

        }

    }

    resolveFeatureAngle		95;

    refinementRegions{}

    locationInMesh		(5.4985284805297852e-06 1.9966871576959644e-06 3.0);

    allowFreeStandingZoneFaces		true;

}

snapControls
{

    nSmoothPatch		8;

    tolerance		2.0;

    nSolveIter		100;

    nRelaxIter		10;

    nFeatureSnapIter		10;

    implicitFeatureSnap		true;

    multiRegionFeatureSnap		true;

}

addLayersControls
{

    relativeSizes		true;

    layers
    {

        inlet
        {

            nSurfaceLayers		3;

        }

        outlet
        {

            nSurfaceLayers		3;

        }

        main_pipe
        {

            nSurfaceLayers		3;

        }

    }

    expansionRatio		1.1;

    finalLayerThickness		0.7;

    minThickness		0.1;

    nGrow		1;

    featureAngle		110;

    nRelaxIter		3;

    nSmoothSurfaceNormals		1;

    nSmoothThickness		10;

    nSmoothNormals		3;

    maxFaceThicknessRatio		0.9;

    maxThicknessToMedialRatio		0.9;

    minMedianAxisAngle		130;

    nBufferCellsNoExtrude		0;

    nLayerIter		50;

    nRelaxedIter		20;

}

meshQualityControls
{

    maxNonOrtho		60;

    maxBoundarySkewness		20;

    maxInternalSkewness		4;

    maxConcave		80;

    minFlatness		0.5;

    minVol		1e-13;

    minTetQuality		1e-15;

    minArea		-1;

    minTwist		0.02;

    minDeterminant		0.001;

    minFaceWeight		0.02;

    minVolRatio		0.01;

    minTriangleTwist		-1;

    nSmoothScale		4;

    errorReduction		0.75;

}

debug		0;

mergeTolerance		1E-6;