/*--------------------------------*- C++ -*----------------------------------*\
| =========                 |                                                 |
| \\      /  F ield         | foam-extend: Open Source CFD                    |
|  \\    /   O peration     | Version:     3.1                                |
|   \\  /    A nd           | Web:         http://www.extend-project.de       |
|    \\/     M anipulation  |                                                 |
\*---------------------------------------------------------------------------*/
FoamFile
{
    version     2.0;
    format      ascii;
    class       volScalarField;
    object      epsilon;
}
// * * * * * * * * * * * * * * * * * * * * * * * * * * * * * * * * * * * * * //

#include        "initialConditions"

dimensions      [0 0 -1 0 0 0 0];

internalField   uniform $turbulentOmega;

boundaryField
{
    //#include "fixedInlet"
//#include "ABLConditions"
inlet{
	type 		fixedValue;
	value		$internalField;

     }

outlet
    {
        type            inletOutlet;
        inletValue      $internalField;
        value           $internalField;
    }

    lowerWall
    {
        type            omegaWallFunction;
        value           $internalField;
    }


    Envelope_1
    {
        type            omegaWallFunction;
        value           $internalField;
    }



    #include "frontBackUpperPatches"
}

// ************************************************************************* //
