/*--------------------------------*- C++ -*----------------------------------*\
| =========                 |                                                 |
| \\      /  F ield         | OpenFOAM: The Open Source CFD Toolbox           |
|  \\    /   O peration     | Version:  2.4.0                                 |
|   \\  /    A nd           | Web:      www.OpenFOAM.org                      |
|    \\/     M anipulation  |                                                 |
\*---------------------------------------------------------------------------*/
/*Generated by Butterfly 0.0.1 https://github.com/mostaphaRoudsari/Butterfly *\
\*---------------------------------------------------------------------------*/
FoamFile
{
	version		2.4;
	format		ascii;
	class		dictionary;
	location	"system";
	object		fvSchemes;
}

ddtSchemes
{

    default		steadyState;

}

gradSchemes
{

    default		cellLimited leastSquares 1;

}

divSchemes
{

    default		none;

    div((nuEff*dev(T(grad(U)))))		Gauss linear;

    div(phi,epsilon)		bounded Gauss linearUpwind grad(epsilon);

    div(phi,U)		bounded Gauss linearUpwindV grad(U);

    div(phi,k)		bounded Gauss linearUpwind grad(k);

}

laplacianSchemes
{

    default		Gauss linear limited corrected 0.333;

}

interpolationSchemes
{

    default		linear;

}

snGradSchemes
{

    default		limited corrected 0.333;

}

fluxRequired
{

    p		;

    default		no;

}