/*--------------------------------*- C++ -*----------------------------------*\
| =========                 |                                                 |
| \\      /  F ield         | OpenFOAM: The Open Source CFD Toolbox           |
|  \\    /   O peration     | Version:  v1606+                                |
|   \\  /    A nd           | Web:      www.OpenFOAM.org                      |
|    \\/     M anipulation  |                                                 |
\*---------------------------------------------------------------------------*/
/*Generated by Butterfly 0.0.2 https://github.com/mostaphaRoudsari/Butterfly *\
\*---------------------------------------------------------------------------*/
FoamFile
{
	version		3.0;
	format		ascii;
	class		volScalarField;
	location	"0";
	object		nut;
}

dimensions		[0 2 -1 0 0 0 0];

internalField		uniform 0;

boundaryField
{

    boundingbox
    {

        type		zeroGradient;

    }

    west_window
    {

        type		calculated;

        value		uniform 0;

    }

    room
    {

        type		nutkWallFunction;

        value		uniform 0.01;

    }

    east_window
    {

        type		calculated;

        value		uniform 0;

    }

}