/*--------------------------------*- C++ -*----------------------------------*\
| =========                 |                                                 |
| \\      /  F ield         | OpenFOAM: The Open Source CFD Toolbox           |
|  \\    /   O peration     | Version:  v1606+                                |
|   \\  /    A nd           | Web:      www.OpenFOAM.com                      |
|    \\/     M anipulation  |                                                 |
\*---------------------------------------------------------------------------*/
FoamFile
{
    version     2.0;
    format      ascii;
    class       polyBoundaryMesh;
    location    "1/polyMesh";
    object      boundary;
}
// * * * * * * * * * * * * * * * * * * * * * * * * * * * * * * * * * * * * * //

4
(
    boundingbox
    {
        type            wall;
        inGroups        1(wall);
        nFaces          0;
        startFace       111653;
    }
    west_window
    {
        type            wall;
        inGroups        1(wall);
        nFaces          1442;
        startFace       111653;
    }
    room
    {
        type            wall;
        inGroups        1(wall);
        nFaces          15333;
        startFace       113095;
    }
    east_window
    {
        type            wall;
        inGroups        1(wall);
        nFaces          1971;
        startFace       128428;
    }
)

// ************************************************************************* //
