/*--------------------------------*- C++ -*----------------------------------*\
| =========                 |                                                 |
| \\      /  F ield         | OpenFOAM: The Open Source CFD Toolbox           |
|  \\    /   O peration     | Version:  v1612+                                |
|   \\  /    A nd           | Web:      www.OpenFOAM.org                      |
|    \\/     M anipulation  |                                                 |
\*---------------------------------------------------------------------------*/
/* Butterfly 0.0.3       https://github.com/ladybug-analysis-tools/butterfly *\
\*---------------------------------------------------------------------------*/
FoamFile
{
	version		4.0;
	format		ascii;
	class		dictionary;
	location	"system";
	object		snappyHexMeshDict;
}

castellatedMesh		true;

snap		true;

addLayers		false;

geometry
{

    indoor_airflow.stl
    {

        type		triSurfaceMesh;

        name		indoor_airflow;

        regions
        {

            west_window
            {

                name		west_window;

            }

            room
            {

                name		room;

            }

            east_window
            {

                name		east_window;

            }

        }

    }

}

castellatedMeshControls
{

    maxLocalCells		1000000;

    maxGlobalCells		2000000;

    minRefinementCells		10;

    maxLoadUnbalance		0.10;

    nCellsBetweenLevels		3;

    features		();

    refinementSurfaces
    {

        indoor_airflow
        {

            level		(0 0);

            regions
            {

                west_window
                {

                    level		(2 2);

                }

                east_window
                {

                    level		(2 2);

                }

            }

        }

    }

    resolveFeatureAngle		180;

    refinementRegions{}

    locationInMesh		(5.0 5.000000000000001 3.0);

    allowFreeStandingZoneFaces		true;

}

snapControls
{

    nSmoothPatch		5;

    tolerance		5;

    nSolveIter		100;

    nRelaxIter		8;

    nFeatureSnapIter		10;

    implicitFeatureSnap		true;

    multiRegionFeatureSnap		true;

}

addLayersControls
{

    relativeSizes		true;

    layers{}

    expansionRatio		1.0;

    finalLayerThickness		0.3;

    minThickness		0.2;

    nGrow		0;

    featureAngle		60;

    nRelaxIter		3;

    nSmoothSurfaceNormals		1;

    nSmoothThickness		10;

    nSmoothNormals		3;

    maxFaceThicknessRatio		0.5;

    maxThicknessToMedialRatio		0.3;

    minMedianAxisAngle		90;

    nBufferCellsNoExtrude		0;

    nLayerIter		50;

    nRelaxedIter		20;

}

meshQualityControls
{

    maxNonOrtho		60;

    maxBoundarySkewness		20;

    maxInternalSkewness		4;

    maxConcave		80;

    minFlatness		0.5;

    minVol		1e-13;

    minTetQuality		1e-15;

    minArea		-1;

    minTwist		0.02;

    minDeterminant		0.001;

    minFaceWeight		0.02;

    minVolRatio		0.01;

    minTriangleTwist		-1;

    nSmoothScale		4;

    errorReduction		0.75;

}

debug		0;

mergeTolerance		1E-6;